<?xml version='1.0' encoding='utf-8'?>
<net xmlns:xsi="http://www.w3.org/2001/XMLSchema-instance" version="1.20" junctionCornerDetail="5" limitTurnSpeed="5.50" xsi:noNamespaceSchemaLocation="http://sumo.dlr.de/xsd/net_file.xsd">

    <location netOffset="-285155.26,-4402444.03" convBoundary="0.00,0.00,3855.62,2034.64" origBoundary="30.492107,39.745051,30.537359,39.763700" projParameter="+proj=utm +zone=36 +ellps=WGS84 +datum=WGS84 +units=m +no_defs" />

    <type id="highway.cycleway" priority="1" numLanes="1" speed="5.56" allow="bicycle" oneway="0" width="2.00" />
    <type id="highway.footway" priority="1" numLanes="1" speed="2.78" allow="pedestrian" oneway="1" width="2.00" />
    <type id="highway.living_street" priority="2" numLanes="1" speed="2.78" disallow="tram rail_urban rail rail_electric rail_fast ship container cable_car subway aircraft wheelchair scooter drone" oneway="0" />
    <edge id=":10923893776_0" function="internal">
        <lane id=":10923893776_0_0" index="0" allow="pedestrian bicycle" speed="2.89" length="2.92" width="2.00" shape="2390.89,188.52,880.0211791992188 2391.53,187.88,880.0211791992188 2392.07,187.74,880.0211791992188 2392.51,188.09,880.0211791992188 2392.85,188.92,880.0211791992188" />
    </edge>
    <edge id=":10923899263_0" function="internal">
        <lane id=":10923899263_0_0" index="0" disallow="tram rail_urban rail rail_electric rail_fast ship container cable_car subway aircraft wheelchair scooter drone" speed="22.22" length="9.59" shape="2385.53,235.01,880.253662109375 2379.69,227.41,880.253662109375" />
    </edge>
    <edge id=":10923899263_1" function="internal">
        <lane id=":10923899263_1_0" index="0" allow="pedestrian bicycle" speed="12.77" length="2.97" width="2.00" shape="2385.53,235.01,880.253662109375 2384.23,232.35,880.253662109375" />
    </edge>
    <tlLogic id="2225243843" type="static" programID="0" offset="0">
        <phase duration="27" state="GGGggrrrrrGGgggrrrrrrrrrr" />
        <phase duration="3" state="yyyyyrrrrryyyyyrrrrrrrrrr" />
        <phase duration="27" state="rrrrrGGgggrrrrrrrrrrGGGgg" />
        </tlLogic>
    <tlLogic id="6179653302" type="static" programID="0" offset="0">
        </tlLogic>
    <tlLogic id="cluster_1509289646_6173505379_6179653303_6179653314_#3more" type="static" programID="0" offset="0">
        </tlLogic>
    <junction id="10923893776" type="priority" x="2391.87" y="188.72" incLanes="-1175590673_0" intLanes=":10923893776_0_0" shape="2391.87,188.72,880.0211791992188 2389.91,188.32,880.0211791992188 2391.87,188.72,880.0211791992188">
        <request index="0" response="0" foes="0" cont="0" />
    </junction>
    <junction id="10923899263" type="priority" x="2386.43" y="233.56" incLanes="-212410099#1_0 1175590673_0 212410099#0_0" intLanes=":10923899263_0_0 :10923899263_7_0 :10923899263_2_0 :10923899263_3_0 :10923899263_4_0 :10923899263_5_0 :10923899263_6_0" shape="2384.26,235.99,880.253662109375 2389.33,232.09,880.253662109375 2388.02,229.52,880.253662109375 2387.96,228.44,880.253662109375 2388.11,227.29,880.253662109375 2388.31,225.92,880.253662109375 2388.41,224.17,880.253662109375 2384.41,224.17,880.253662109375 2384.31,224.88,880.253662109375 2384.18,225.00,880.253662109375 2384.01,224.98,880.253662109375 2383.78,224.81,880.253662109375 2383.50,224.48,880.253662109375 2378.42,228.38,880.253662109375">
        <request index="0" response="0000000" foes="0001000" cont="0" />
        <request index="1" response="1100000" foes="1111000" cont="1" />
        </junction>
    <junction id="10937900559" type="priority" x="1020.48" y="1603.08" incLanes="-1177339962_0" intLanes=":10937900559_0_0" shape="1020.48,1603.08,804.3848266601562 1023.54,1604.01,804.3848266601562 1020.48,1603.08,804.3848266601562">
        </junction>
    <junction id="cluster_2222528273_2222528279" type="priority" x="1798.81" y="1004.34" incLanes="-212402358#0_0 -446823214#2_0 212402393#4_0 446823214#0_0" intLanes=":cluster_2222528273_2222528279_0_0 :cluster_2222528273_2222528279_1_0 :cluster_2222528273_2222528279_2_0 :cluster_2222528273_2222528279_3_0 :cluster_2222528273_2222528279_4_0 :cluster_2222528273_2222528279_5_0 :cluster_2222528273_2222528279_16_0 :cluster_2222528273_2222528279_17_0 :cluster_2222528273_2222528279_8_0 :cluster_2222528273_2222528279_9_0 :cluster_2222528273_2222528279_10_0 :cluster_2222528273_2222528279_11_0 :cluster_2222528273_2222528279_12_0 :cluster_2222528273_2222528279_13_0 :cluster_2222528273_2222528279_18_0 :cluster_2222528273_2222528279_19_0" shape="1805.46,1009.29,842.17138671875 1811.73,1007.80,842.17138671875 1811.16,1004.95,842.17138671875 1811.33,1003.79,842.17138671875 1811.80,1002.81,842.17138671875 1812.57,1002.01,842.17138671875 1813.65,1001.38,842.17138671875 1811.09,995.52,843.3684692382812 1805.69,997.74,843.3684692382812 1801.20,999.34,843.3684692382812 1797.61,1000.29,842.1515502929688 1794.94,1000.61,842.1515502929688 1793.17,1000.29,842.1515502929688 1792.31,999.34,842.1515502929688 1786.21,1001.27,842.1515502929688 1786.58,1003.91,841.7163696289062 1786.34,1005.00,841.7163696289062 1785.83,1005.93,841.7163696289062 1785.02,1006.70,841.7163696289062 1783.94,1007.31,841.7163696289062 1786.49,1013.18,841.7163696289062 1791.91,1010.95,841.7163696289062 1796.42,1009.35,841.7163696289062 1800.04,1008.38,841.7163696289062 1802.75,1008.05,842.17138671875 1804.56,1008.35,842.17138671875">
        <request index="0"  response="0000000000100000" foes="1000010000100000" cont="0"/>
        <request index="1"  response="0111000001100000" foes="0111110001100000" cont="0"/>
        <request index="2"  response="0110001101100000" foes="0110001111100000" cont="0"/>
        <request index="3"  response="0100001000010000" foes="0100001000010000" cont="0"/>
        <request index="4"  response="0000000000000000" foes="0100001000001000" cont="0"/>
        <request index="5"  response="0000000000000000" foes="1100011000000111" cont="0"/>
        <request index="6"  response="0111000000000000" foes="0111111000000110" cont="1"/>
        <request index="7"  response="0010000100000100" foes="0010000100000100" cont="1"/>
        <request index="8"  response="0010000000000000" foes="0010000010000100" cont="0"/>
        <request index="9"  response="0110000001110000" foes="0110000001111100" cont="0"/>
        <request index="10" response="0110000001100011" foes="1110000001100011" cont="0"/>
        <request index="11" response="0001000001000010" foes="0001000001000010" cont="0"/>
        <request index="12" response="0000000000000000" foes="0000100001000010" cont="0"/>
        <request index="13" response="0000000000000000" foes="0000011111000110" cont="0"/>
        <request index="14" response="0000000000110000" foes="0000011001111110" cont="1"/>
        <request index="15" response="0000010000100001" foes="0000010000100001" cont="1"/>
    </junction>
    <connection from="-1061150746" to="-212738361" fromLane="0" toLane="0" via=":2222654180_4_0" dir="r" state="m" />
    <connection from="-1061150746" to="-659352991#3" fromLane="0" toLane="0" via=":2222654180_5_0" dir="s" state="m" />
    <connection from="-1061150746" to="659352991#4" fromLane="0" toLane="0" via=":2222654180_6_0" dir="l" state="m" />
    <roundabout nodes="4558870524 4558870525 4558870531 4558870546 4558870553 4558870554 4558870555 4558870558 4558870559 4558870560 6557024971" edges="460213970#0 460213970#1 460213970#10 460213970#2 460213970#3 460213970#4 460213970#5 460213970#6 460213970#7 460213970#8 460213970#9" />

</net>