<?xml version='1.0' encoding='utf-8'?>
<net xmlns:xsi="http://www.w3.org/2001/XMLSchema-instance" version="1.20" junctionCornerDetail="5" limitTurnSpeed="5.50" xsi:noNamespaceSchemaLocation="http://sumo.dlr.de/xsd/net_file.xsd">

    <location netOffset="-285155.26,-4402444.03" convBoundary="0.00,0.00,3855.62,2034.64" origBoundary="30.492107,39.745051,30.537359,39.763700" projParameter="+proj=utm +zone=36 +ellps=WGS84 +datum=WGS84 +units=m +no_defs" />

    <type id="highway.cycleway" priority="1" numLanes="1" speed="5.56" allow="bicycle" oneway="0" width="2.00" />
    <type id="highway.footway" priority="1" numLanes="1" speed="2.78" allow="pedestrian" oneway="1" width="2.00" />
    <type id="highway.living_street" priority="2" numLanes="1" speed="2.78" disallow="tram rail_urban rail rail_electric rail_fast ship container cable_car subway aircraft wheelchair scooter drone" oneway="0" />
    <edge id=":10923893776_0" function="internal">
        <lane id=":10923893776_0_0" index="0" allow="pedestrian bicycle" speed="2.89" length="2.92" width="2.00" shape="2390.89,188.52,818.0 2391.53,187.88,818.0 2392.07,187.74,818.0 2392.51,188.09,818.0 2392.85,188.92,818.0" />
    </edge>
    <edge id=":10923899263_0" function="internal">
        <lane id=":10923899263_0_0" index="0" disallow="tram rail_urban rail rail_electric rail_fast ship container cable_car subway aircraft wheelchair scooter drone" speed="22.22" length="9.59" shape="2385.53,235.01,818.0 2379.69,227.41,818.0" />
    </edge>
    <edge id=":10923899263_1" function="internal">
        <lane id=":10923899263_1_0" index="0" allow="pedestrian bicycle" speed="12.77" length="2.97" width="2.00" shape="2385.53,235.01,818.0 2384.23,232.35,818.0" />
    </edge>
    <tlLogic id="2225243843" type="static" programID="0" offset="0">
        <phase duration="27" state="GGGggrrrrrGGgggrrrrrrrrrr" />
        <phase duration="3" state="yyyyyrrrrryyyyyrrrrrrrrrr" />
        <phase duration="27" state="rrrrrGGgggrrrrrrrrrrGGGgg" />
        </tlLogic>
    <tlLogic id="6179653302" type="static" programID="0" offset="0">
        </tlLogic>
    <tlLogic id="cluster_1509289646_6173505379_6179653303_6179653314_#3more" type="static" programID="0" offset="0">
        </tlLogic>
    <junction id="10923893776" type="priority" x="2391.87" y="188.72" incLanes="-1175590673_0" intLanes=":10923893776_0_0" shape="2391.87,188.72,818.0 2389.91,188.32,818.0 2391.87,188.72,818.0">
        <request index="0" response="0" foes="0" cont="0" />
    </junction>
    <junction id="10923899263" type="priority" x="2386.43" y="233.56" incLanes="-212410099#1_0 1175590673_0 212410099#0_0" intLanes=":10923899263_0_0 :10923899263_7_0 :10923899263_2_0 :10923899263_3_0 :10923899263_4_0 :10923899263_5_0 :10923899263_6_0" shape="2384.26,235.99,818.0 2389.33,232.09,818.0 2388.02,229.52,818.0 2387.96,228.44,818.0 2388.11,227.29,818.0 2388.31,225.92,818.0 2388.41,224.17,818.0 2384.41,224.17,818.0 2384.31,224.88,818.0 2384.18,225.00,818.0 2384.01,224.98,818.0 2383.78,224.81,818.0 2383.50,224.48,818.0 2378.42,228.38,818.0">
        <request index="0" response="0000000" foes="0001000" cont="0" />
        <request index="1" response="1100000" foes="1111000" cont="1" />
        </junction>
    <junction id="10937900559" type="priority" x="1020.48" y="1603.08" incLanes="-1177339962_0" intLanes=":10937900559_0_0" shape="1020.48,1603.08,823.0 1023.54,1604.01,823.0 1020.48,1603.08,823.0">
        </junction>
    <connection from="-1061150746" to="-212738361" fromLane="0" toLane="0" via=":2222654180_4_0" dir="r" state="m" />
    <connection from="-1061150746" to="-659352991#3" fromLane="0" toLane="0" via=":2222654180_5_0" dir="s" state="m" />
    <connection from="-1061150746" to="659352991#4" fromLane="0" toLane="0" via=":2222654180_6_0" dir="l" state="m" />
    <roundabout nodes="4558870524 4558870525 4558870531 4558870546 4558870553 4558870554 4558870555 4558870558 4558870559 4558870560 6557024971" edges="460213970#0 460213970#1 460213970#10 460213970#2 460213970#3 460213970#4 460213970#5 460213970#6 460213970#7 460213970#8 460213970#9" />

</net>